LTspice 24.1.5 for Windows
Circuit: D:\OneDrive\Pulpit\Elektrozaczep z cewką\Elektrozaczep_z_cewka.net
Start Time: Sun Apr 13 21:31:26 2025
solver = Normal
Maximum thread count: 12
tnom = 27
temp = 27
method = modified trap
.OP point found by inspection.
Total elapsed time: 0.054 seconds.

Files loaded:
D:\OneDrive\Pulpit\Elektrozaczep z cewką\Elektrozaczep_z_cewka.net

