LTspice 24.1.5 for Windows
Circuit: D:\OneDrive\Pulpit\Nowy folder\elektrozaczep.net
Start Time: Sun Apr  6 17:44:19 2025
solver = Normal
Maximum thread count: 12
tnom = 27
temp = 27
method = modified trap
Direct Newton iteration for .op point succeeded.
Total elapsed time: 0.288 seconds.

Files loaded:
D:\OneDrive\Pulpit\Nowy folder\elektrozaczep.net
C:\Users\hugo2\AppData\Local\LTspice\lib\cmp\standard.mos

