LTspice 24.1.7 for Windows
Circuit: D:\OneDrive\Pulpit\Symulacje\Moc tracona na rezystorze\Moc_tracona_na_rezystorze.net
Start Time: Mon Apr 28 19:18:58 2025
solver = Normal
Maximum thread count: 12
tnom = 27
temp = 27
method = modified trap
.OP point found by inspection.
Total elapsed time: 0.047 seconds.

Files loaded:
D:\OneDrive\Pulpit\Symulacje\Moc tracona na rezystorze\Moc_tracona_na_rezystorze.net

